powerfulcases/cases/matpower/case94pi/case94pi.raw
0, 1, 33, 0, 0, 60  / 28-Jan-2026 21:53:37 - MATPOWER 8.1


     1, 'BUS 1       ',        15, 3,    1,    1, 1,           1,           0,    1,    1,    1,    1
     2, 'BUS 2       ',        15, 1,    1,    1, 1,           1,           0,  1.1,  0.9,  1.1,  0.9
     3, 'BUS 3       ',        15, 1,    1,    1, 1,           1,           0,  1.1,  0.9,  1.1,  0.9
     4, 'BUS 4       ',        15, 1,    1,    1, 1,           1,           0,  1.1,  0.9,  1.1,  0.9
     5, 'BUS 5       ',        15, 1,    1,    1, 1,           1,           0,  1.1,  0.9,  1.1,  0.9
     6, 'BUS 6       ',        15, 1,    1,    1, 1,           1,           0,  1.1,  0.9,  1.1,  0.9
     7, 'BUS 7       ',        15, 1,    1,    1, 1,           1,           0,  1.1,  0.9,  1.1,  0.9
     8, 'BUS 8       ',        15, 1,    1,    1, 1,           1,           0,  1.1,  0.9,  1.1,  0.9
     9, 'BUS 9       ',        15, 1,    1,    1, 1,           1,           0,  1.1,  0.9,  1.1,  0.9
    10, 'BUS 10      ',        15, 1,    1,    1, 1,           1,           0,  1.1,  0.9,  1.1,  0.9
    11, 'BUS 11      ',        15, 1,    1,    1, 1,           1,           0,  1.1,  0.9,  1.1,  0.9
    12, 'BUS 12      ',        15, 1,    1,    1, 1,           1,           0,  1.1,  0.9,  1.1,  0.9
    13, 'BUS 13      ',        15, 1,    1,    1, 1,           1,           0,  1.1,  0.9,  1.1,  0.9
    14, 'BUS 14      ',        15, 1,    1,    1, 1,           1,           0,  1.1,  0.9,  1.1,  0.9
    15, 'BUS 15      ',        15, 1,    1,    1, 1,           1,           0,  1.1,  0.9,  1.1,  0.9
    16, 'BUS 16      ',        15, 1,    1,    1, 1,           1,           0,  1.1,  0.9,  1.1,  0.9
    17, 'BUS 17      ',        15, 1,    1,    1, 1,           1,           0,  1.1,  0.9,  1.1,  0.9
    18, 'BUS 18      ',        15, 1,    1,    1, 1,           1,           0,  1.1,  0.9,  1.1,  0.9
    19, 'BUS 19      ',        15, 1,    1,    1, 1,           1,           0,  1.1,  0.9,  1.1,  0.9
    20, 'BUS 20      ',        15, 1,    1,    1, 1,           1,           0,  1.1,  0.9,  1.1,  0.9
    21, 'BUS 21      ',        15, 1,    1,    1, 1,           1,           0,  1.1,  0.9,  1.1,  0.9
    22, 'BUS 22      ',        15, 1,    1,    1, 1,           1,           0,  1.1,  0.9,  1.1,  0.9
    23, 'BUS 23      ',        15, 1,    1,    1, 1,           1,           0,  1.1,  0.9,  1.1,  0.9
    24, 'BUS 24      ',        15, 1,    1,    1, 1,           1,           0,  1.1,  0.9,  1.1,  0.9
    25, 'BUS 25      ',        15, 1,    1,    1, 1,           1,           0,  1.1,  0.9,  1.1,  0.9
    26, 'BUS 26      ',        15, 1,    1,    1, 1,           1,           0,  1.1,  0.9,  1.1,  0.9
    27, 'BUS 27      ',        15, 1,    1,    1, 1,           1,           0,  1.1,  0.9,  1.1,  0.9
    28, 'BUS 28      ',        15, 1,    1,    1, 1,           1,           0,  1.1,  0.9,  1.1,  0.9
    29, 'BUS 29      ',        15, 1,    1,    1, 1,           1,           0,  1.1,  0.9,  1.1,  0.9
    30, 'BUS 30      ',        15, 1,    1,    1, 1,           1,           0,  1.1,  0.9,  1.1,  0.9
    31, 'BUS 31      ',        15, 1,    1,    1, 1,           1,           0,  1.1,  0.9,  1.1,  0.9
    32, 'BUS 32      ',        15, 1,    1,    1, 1,           1,           0,  1.1,  0.9,  1.1,  0.9
    33, 'BUS 33      ',        15, 1,    1,    1, 1,           1,           0,  1.1,  0.9,  1.1,  0.9
    34, 'BUS 34      ',        15, 1,    1,    1, 1,           1,           0,  1.1,  0.9,  1.1,  0.9
    35, 'BUS 35      ',        15, 1,    1,    1, 1,           1,           0,  1.1,  0.9,  1.1,  0.9
    36, 'BUS 36      ',        15, 1,    1,    1, 1,           1,           0,  1.1,  0.9,  1.1,  0.9
    37, 'BUS 37      ',        15, 1,    1,    1, 1,           1,           0,  1.1,  0.9,  1.1,  0.9
    38, 'BUS 38      ',        15, 1,    1,    1, 1,           1,           0,  1.1,  0.9,  1.1,  0.9
    39, 'BUS 39      ',        15, 1,    1,    1, 1,           1,           0,  1.1,  0.9,  1.1,  0.9
    40, 'BUS 40      ',        15, 1,    1,    1, 1,           1,           0,  1.1,  0.9,  1.1,  0.9
    41, 'BUS 41      ',        15, 1,    1,    1, 1,           1,           0,  1.1,  0.9,  1.1,  0.9
    42, 'BUS 42      ',        15, 1,    1,    1, 1,           1,           0,  1.1,  0.9,  1.1,  0.9
    43, 'BUS 43      ',        15, 1,    1,    1, 1,           1,           0,  1.1,  0.9,  1.1,  0.9
    44, 'BUS 44      ',        15, 1,    1,    1, 1,           1,           0,  1.1,  0.9,  1.1,  0.9
    45, 'BUS 45      ',        15, 1,    1,    1, 1,           1,           0,  1.1,  0.9,  1.1,  0.9
    46, 'BUS 46      ',        15, 1,    1,    1, 1,           1,           0,  1.1,  0.9,  1.1,  0.9
    47, 'BUS 47      ',        15, 1,    1,    1, 1,           1,           0,  1.1,  0.9,  1.1,  0.9
    48, 'BUS 48      ',        15, 1,    1,    1, 1,           1,           0,  1.1,  0.9,  1.1,  0.9
    49, 'BUS 49      ',        15, 1,    1,    1, 1,           1,           0,  1.1,  0.9,  1.1,  0.9
    50, 'BUS 50      ',        15, 1,    1,    1, 1,           1,           0,  1.1,  0.9,  1.1,  0.9
    51, 'BUS 51      ',        15, 1,    1,    1, 1,           1,           0,  1.1,  0.9,  1.1,  0.9
    52, 'BUS 52      ',        15, 1,    1,    1, 1,           1,           0,  1.1,  0.9,  1.1,  0.9
    53, 'BUS 53      ',        15, 1,    1,    1, 1,           1,           0,  1.1,  0.9,  1.1,  0.9
    54, 'BUS 54      ',        15, 1,    1,    1, 1,           1,           0,  1.1,  0.9,  1.1,  0.9
    55, 'BUS 55      ',        15, 1,    1,    1, 1,           1,           0,  1.1,  0.9,  1.1,  0.9
    56, 'BUS 56      ',        15, 1,    1,    1, 1,           1,           0,  1.1,  0.9,  1.1,  0.9
    57, 'BUS 57      ',        15, 1,    1,    1, 1,           1,           0,  1.1,  0.9,  1.1,  0.9
    58, 'BUS 58      ',        15, 1,    1,    1, 1,           1,           0,  1.1,  0.9,  1.1,  0.9
    59, 'BUS 59      ',        15, 1,    1,    1, 1,           1,           0,  1.1,  0.9,  1.1,  0.9
    60, 'BUS 60      ',        15, 1,    1,    1, 1,           1,           0,  1.1,  0.9,  1.1,  0.9
    61, 'BUS 61      ',        15, 1,    1,    1, 1,           1,           0,  1.1,  0.9,  1.1,  0.9
    62, 'BUS 62      ',        15, 1,    1,    1, 1,           1,           0,  1.1,  0.9,  1.1,  0.9
    63, 'BUS 63      ',        15, 1,    1,    1, 1,           1,           0,  1.1,  0.9,  1.1,  0.9
    64, 'BUS 64      ',        15, 1,    1,    1, 1,           1,           0,  1.1,  0.9,  1.1,  0.9
    65, 'BUS 65      ',        15, 1,    1,    1, 1,           1,           0,  1.1,  0.9,  1.1,  0.9
    66, 'BUS 66      ',        15, 1,    1,    1, 1,           1,           0,  1.1,  0.9,  1.1,  0.9
    67, 'BUS 67      ',        15, 1,    1,    1, 1,           1,           0,  1.1,  0.9,  1.1,  0.9
    68, 'BUS 68      ',        15, 1,    1,    1, 1,           1,           0,  1.1,  0.9,  1.1,  0.9
    69, 'BUS 69      ',        15, 1,    1,    1, 1,           1,           0,  1.1,  0.9,  1.1,  0.9
    70, 'BUS 70      ',        15, 1,    1,    1, 1,           1,           0,  1.1,  0.9,  1.1,  0.9
    71, 'BUS 71      ',        15, 1,    1,    1, 1,           1,           0,  1.1,  0.9,  1.1,  0.9
    72, 'BUS 72      ',        15, 1,    1,    1, 1,           1,           0,  1.1,  0.9,  1.1,  0.9
    73, 'BUS 73      ',        15, 1,    1,    1, 1,           1,           0,  1.1,  0.9,  1.1,  0.9
    74, 'BUS 74      ',        15, 1,    1,    1, 1,           1,           0,  1.1,  0.9,  1.1,  0.9
    75, 'BUS 75      ',        15, 1,    1,    1, 1,           1,           0,  1.1,  0.9,  1.1,  0.9
    76, 'BUS 76      ',        15, 1,    1,    1, 1,           1,           0,  1.1,  0.9,  1.1,  0.9
    77, 'BUS 77      ',        15, 1,    1,    1, 1,           1,           0,  1.1,  0.9,  1.1,  0.9
    78, 'BUS 78      ',        15, 1,    1,    1, 1,           1,           0,  1.1,  0.9,  1.1,  0.9
    79, 'BUS 79      ',        15, 1,    1,    1, 1,           1,           0,  1.1,  0.9,  1.1,  0.9
    80, 'BUS 80      ',        15, 1,    1,    1, 1,           1,           0,  1.1,  0.9,  1.1,  0.9
    81, 'BUS 81      ',        15, 1,    1,    1, 1,           1,           0,  1.1,  0.9,  1.1,  0.9
    82, 'BUS 82      ',        15, 1,    1,    1, 1,           1,           0,  1.1,  0.9,  1.1,  0.9
    83, 'BUS 83      ',        15, 1,    1,    1, 1,           1,           0,  1.1,  0.9,  1.1,  0.9
    84, 'BUS 84      ',        15, 1,    1,    1, 1,           1,           0,  1.1,  0.9,  1.1,  0.9
    85, 'BUS 85      ',        15, 1,    1,    1, 1,           1,           0,  1.1,  0.9,  1.1,  0.9
    86, 'BUS 86      ',        15, 1,    1,    1, 1,           1,           0,  1.1,  0.9,  1.1,  0.9
    87, 'BUS 87      ',        15, 1,    1,    1, 1,           1,           0,  1.1,  0.9,  1.1,  0.9
    88, 'BUS 88      ',        15, 1,    1,    1, 1,           1,           0,  1.1,  0.9,  1.1,  0.9
    89, 'BUS 89      ',        15, 1,    1,    1, 1,           1,           0,  1.1,  0.9,  1.1,  0.9
    90, 'BUS 90      ',        15, 1,    1,    1, 1,           1,           0,  1.1,  0.9,  1.1,  0.9
    91, 'BUS 91      ',        15, 1,    1,    1, 1,           1,           0,  1.1,  0.9,  1.1,  0.9
    92, 'BUS 92      ',        15, 1,    1,    1, 1,           1,           0,  1.1,  0.9,  1.1,  0.9
    93, 'BUS 93      ',        15, 1,    1,    1, 1,           1,           0,  1.1,  0.9,  1.1,  0.9
    94, 'BUS 94      ',        15, 1,    1,    1, 1,           1,           0,  1.1,  0.9,  1.1,  0.9
0 / END OF BUS DATA, BEGIN LOAD DATA
     2,  1, 1,    1,    1,    0.0225,    0.0109, 0, 0, 0, 0, 1, 1, 0
     3,  1, 1,    1,    1,    0.2403,    0.1164, 0, 0, 0, 0, 1, 1, 0
     4,  1, 1,    1,    1,    0.0243,    0.0118, 0, 0, 0, 0, 1, 1, 0
     7,  1, 1,    1,    1,    0.0288,     0.014, 0, 0, 0, 0, 1, 1, 0
    14,  1, 1,    1,    1,    0.0576,    0.0279, 0, 0, 0, 0, 1, 1, 0
    17,  1, 1,    1,    1,    0.0189,    0.0092, 0, 0, 0, 0, 1, 1, 0
    20,  1, 1,    1,    1,    0.0558,     0.027, 0, 0, 0, 0, 1, 1, 0
    21,  1, 1,    1,    1,    0.0405,    0.0196, 0, 0, 0, 0, 1, 1, 0
    23,  1, 1,    1,    1,     0.054,    0.0262, 0, 0, 0, 0, 1, 1, 0
    26,  1, 1,    1,    1,    0.0468,    0.0227, 0, 0, 0, 0, 1, 1, 0
    29,  1, 1,    1,    1,    0.0135,    0.0065, 0, 0, 0, 0, 1, 1, 0
    30,  1, 1,    1,    1,    0.0036,    0.0017, 0, 0, 0, 0, 1, 1, 0
    31,  1, 1,    1,    1,     0.018,    0.0087, 0, 0, 0, 0, 1, 1, 0
    32,  1, 1,    1,    1,    0.0216,    0.0105, 0, 0, 0, 0, 1, 1, 0
    33,  1, 1,    1,    1,     0.009,    0.0044, 0, 0, 0, 0, 1, 1, 0
    34,  1, 1,    1,    1,    0.0648,    0.0314, 0, 0, 0, 0, 1, 1, 0
    35,  1, 1,    1,    1,    0.0657,    0.0318, 0, 0, 0, 0, 1, 1, 0
    36,  1, 1,    1,    1,    0.0594,    0.0288, 0, 0, 0, 0, 1, 1, 0
    37,  1, 1,    1,    1,    0.0135,    0.0065, 0, 0, 0, 0, 1, 1, 0
    38,  1, 1,    1,    1,    0.1611,     0.078, 0, 0, 0, 0, 1, 1, 0
    39,  1, 1,    1,    1,    0.0261,    0.0126, 0, 0, 0, 0, 1, 1, 0
    40,  1, 1,    1,    1,    0.1341,     0.065, 0, 0, 0, 0, 1, 1, 0
    41,  1, 1,    1,    1,    0.0855,    0.0414, 0, 0, 0, 0, 1, 1, 0
    42,  1, 1,    1,    1,    0.0414,    0.0201, 0, 0, 0, 0, 1, 1, 0
    43,  1, 1,    1,    1,    0.0414,    0.0201, 0, 0, 0, 0, 1, 1, 0
    44,  1, 1,    1,    1,    0.0414,    0.0201, 0, 0, 0, 0, 1, 1, 0
    45,  1, 1,    1,    1,    0.0216,    0.0105, 0, 0, 0, 0, 1, 1, 0
    46,  1, 1,    1,    1,    0.0252,    0.0122, 0, 0, 0, 0, 1, 1, 0
    47,  1, 1,    1,    1,    0.0459,    0.0222, 0, 0, 0, 0, 1, 1, 0
    48,  1, 1,    1,    1,    0.0369,    0.0179, 0, 0, 0, 0, 1, 1, 0
    49,  1, 1,    1,    1,    0.0639,     0.031, 0, 0, 0, 0, 1, 1, 0
    50,  1, 1,    1,    1,    0.0684,    0.0331, 0, 0, 0, 0, 1, 1, 0
    51,  1, 1,    1,    1,    0.0279,    0.0135, 0, 0, 0, 0, 1, 1, 0
    52,  1, 1,    1,    1,     0.081,    0.0392, 0, 0, 0, 0, 1, 1, 0
    53,  1, 1,    1,    1,    0.0693,    0.0336, 0, 0, 0, 0, 1, 1, 0
    54,  1, 1,    1,    1,    0.0621,    0.0301, 0, 0, 0, 0, 1, 1, 0
    55,  1, 1,    1,    1,    0.0351,     0.017, 0, 0, 0, 0, 1, 1, 0
    56,  1, 1,    1,    1,    0.2052,    0.0994, 0, 0, 0, 0, 1, 1, 0
    57,  1, 1,    1,    1,    0.0315,    0.0153, 0, 0, 0, 0, 1, 1, 0
    58,  1, 1,    1,    1,    0.5211,    0.2524, 0, 0, 0, 0, 1, 1, 0
    59,  1, 1,    1,    1,    0.2124,    0.1029, 0, 0, 0, 0, 1, 1, 0
    60,  1, 1,    1,    1,    0.0396,    0.0192, 0, 0, 0, 0, 1, 1, 0
    61,  1, 1,    1,    1,     0.045,    0.0218, 0, 0, 0, 0, 1, 1, 0
    62,  1, 1,    1,    1,    0.0171,    0.0083, 0, 0, 0, 0, 1, 1, 0
    63,  1, 1,    1,    1,    0.0216,    0.0105, 0, 0, 0, 0, 1, 1, 0
    64,  1, 1,    1,    1,    0.0351,     0.017, 0, 0, 0, 0, 1, 1, 0
    65,  1, 1,    1,    1,    0.0702,     0.034, 0, 0, 0, 0, 1, 1, 0
    66,  1, 1,    1,    1,    0.0342,    0.0166, 0, 0, 0, 0, 1, 1, 0
    67,  1, 1,    1,    1,    0.0225,    0.0109, 0, 0, 0, 0, 1, 1, 0
    68,  1, 1,    1,    1,    0.0459,    0.0222, 0, 0, 0, 0, 1, 1, 0
    69,  1, 1,    1,    1,    0.0333,    0.0161, 0, 0, 0, 0, 1, 1, 0
    70,  1, 1,    1,    1,    0.0369,    0.0179, 0, 0, 0, 0, 1, 1, 0
    71,  1, 1,    1,    1,     0.045,    0.0218, 0, 0, 0, 0, 1, 1, 0
    72,  1, 1,    1,    1,    0.0756,    0.0366, 0, 0, 0, 0, 1, 1, 0
    73,  1, 1,    1,    1,    0.0675,    0.0327, 0, 0, 0, 0, 1, 1, 0
    74,  1, 1,    1,    1,    0.0279,    0.0135, 0, 0, 0, 0, 1, 1, 0
    75,  1, 1,    1,    1,    0.0387,    0.0187, 0, 0, 0, 0, 1, 1, 0
    76,  1, 1,    1,    1,    0.0531,    0.0257, 0, 0, 0, 0, 1, 1, 0
    77,  1, 1,    1,    1,    0.0657,    0.0318, 0, 0, 0, 0, 1, 1, 0
    78,  1, 1,    1,    1,     0.063,    0.0305, 0, 0, 0, 0, 1, 1, 0
    79,  1, 1,    1,    1,    0.0675,    0.0327, 0, 0, 0, 0, 1, 1, 0
    80,  1, 1,    1,    1,     0.045,    0.0218, 0, 0, 0, 0, 1, 1, 0
    81,  1, 1,    1,    1,     0.009,    0.0044, 0, 0, 0, 0, 1, 1, 0
    82,  1, 1,    1,    1,    0.0162,    0.0078, 0, 0, 0, 0, 1, 1, 0
    83,  1, 1,    1,    1,    0.0675,    0.0327, 0, 0, 0, 0, 1, 1, 0
    84,  1, 1,    1,    1,    0.2961,    0.1434, 0, 0, 0, 0, 1, 1, 0
    85,  1, 1,    1,    1,     0.072,    0.0349, 0, 0, 0, 0, 1, 1, 0
    86,  1, 1,    1,    1,    0.0765,    0.0371, 0, 0, 0, 0, 1, 1, 0
    87,  1, 1,    1,    1,    0.0909,     0.044, 0, 0, 0, 0, 1, 1, 0
    88,  1, 1,    1,    1,     0.072,    0.0349, 0, 0, 0, 0, 1, 1, 0
    89,  1, 1,    1,    1,     0.063,    0.0305, 0, 0, 0, 0, 1, 1, 0
    90,  1, 1,    1,    1,    0.0216,    0.0105, 0, 0, 0, 0, 1, 1, 0
    91,  1, 1,    1,    1,    0.0369,    0.0179, 0, 0, 0, 0, 1, 1, 0
    92,  1, 1,    1,    1,    0.0207,      0.01, 0, 0, 0, 0, 1, 1, 0
    93,  1, 1,    1,    1,    0.0171,    0.0083, 0, 0, 0, 0, 1, 1, 0
    94,  1, 1,    1,    1,      0.09,    0.0436, 0, 0, 0, 0, 1, 1, 0
0 / END OF LOAD DATA, BEGIN FIXED SHUNT DATA
0 / END OF FIXED SHUNT DATA, BEGIN GENERATOR DATA
     1,  1,         0,         0,        10,       -10,        1, 0,     100, 0, 1, 0, 0, 1, 1, 100,        10,         0, 1, 1, 0, 1, 0, 1, 0, 1, 0, 1
0 / END OF GENERATOR DATA, BEGIN BRANCH DATA
     1,      2, 1, 0.0004977778, 0.0008324444,        0,       0,       0,       0, 0, 0, 0, 0, 1, 1, 0, 1, 1, 0, 1, 0, 1, 0, 1
     2,      3, 1, 0.0003391111, 0.0005662222,        0,       0,       0,       0, 0, 0, 0, 0, 1, 1, 0, 1, 1, 0, 1, 0, 1, 0, 1
     3,      4, 1, 0.0008404444, 0.001404889,        0,       0,       0,       0, 0, 0, 0, 0, 1, 1, 0, 1, 1, 0, 1, 0, 1, 0, 1
     4,      5, 1, 0.0009968889, 0.001666222,        0,       0,       0,       0, 0, 0, 0, 0, 1, 1, 0, 1, 1, 0, 1, 0, 1, 0, 1
     5,      6, 1, 0.001142667, 0.001909778,        0,       0,       0,       0, 0, 0, 0, 0, 1, 1, 0, 1, 1, 0, 1, 0, 1, 0, 1
     6,      7, 1, 0.0005955556, 0.0009951111,        0,       0,       0,       0, 0, 0, 0, 0, 1, 1, 0, 1, 1, 0, 1, 0, 1, 0, 1
     7,      8, 1, 0.001327111, 0.002218222,        0,       0,       0,       0, 0, 0, 0, 0, 1, 1, 0, 1, 1, 0, 1, 0, 1, 0, 1
     8,      9, 1, 0.000868, 0.001451111,        0,       0,       0,       0, 0, 0, 0, 0, 1, 1, 0, 1, 1, 0, 1, 0, 1, 0, 1
     9,     10, 1, 0.002265333, 0.003786222,        0,       0,       0,       0, 0, 0, 0, 0, 1, 1, 0, 1, 1, 0, 1, 0, 1, 0, 1
    10,     11, 1, 0.006801333, 0.006711556,        0,       0,       0,       0, 0, 0, 0, 0, 1, 1, 0, 1, 1, 0, 1, 0, 1, 0, 1
    11,     12, 1, 0.0008395556, 0.0008284444,        0,       0,       0,       0, 0, 0, 0, 0, 1, 1, 0, 1, 1, 0, 1, 0, 1, 0, 1
    12,     13, 1, 0.0008071111, 0.0007968889,        0,       0,       0,       0, 0, 0, 0, 0, 1, 1, 0, 1, 1, 0, 1, 0, 1, 0, 1
    13,     14, 1, 0.0002937778, 0.0002902222,        0,       0,       0,       0, 0, 0, 0, 0, 1, 1, 0, 1, 1, 0, 1, 0, 1, 0, 1
    14,     15, 1, 0.001828889, 0.001804889,        0,       0,       0,       0, 0, 0, 0, 0, 1, 1, 0, 1, 1, 0, 1, 0, 1, 0, 1
    15,     16, 1, 0.001148444, 0.001133333,        0,       0,       0,       0, 0, 0, 0, 0, 1, 1, 0, 1, 1, 0, 1, 0, 1, 0, 1
    16,     17, 1, 0.0009035556, 0.0008915556,        0,       0,       0,       0, 0, 0, 0, 0, 1, 1, 0, 1, 1, 0, 1, 0, 1, 0, 1
    17,     18, 1, 0.003219111, 0.003176889,        0,       0,       0,       0, 0, 0, 0, 0, 1, 1, 0, 1, 1, 0, 1, 0, 1, 0, 1
    18,     19, 1, 0.0009608889, 0.0009484444,        0,       0,       0,       0, 0, 0, 0, 0, 1, 1, 0, 1, 1, 0, 1, 0, 1, 0, 1
    19,     20, 1, 0.001555556, 0.001535111,        0,       0,       0,       0, 0, 0, 0, 0, 1, 1, 0, 1, 1, 0, 1, 0, 1, 0, 1
    20,     21, 1, 0.006566667, 0.001729333,        0,       0,       0,       0, 0, 0, 0, 0, 1, 1, 0, 1, 1, 0, 1, 0, 1, 0, 1
    21,     22, 1,    0.002, 0.0005266667,        0,       0,       0,       0, 0, 0, 0, 0, 1, 1, 0, 1, 1, 0, 1, 0, 1, 0, 1
    22,     23, 1, 0.003426667, 0.0009022222,        0,       0,       0,       0, 0, 0, 0, 0, 1, 1, 0, 1, 1, 0, 1, 0, 1, 0, 1
    23,     24, 1, 0.003933333, 0.001036,        0,       0,       0,       0, 0, 0, 0, 0, 1, 1, 0, 1, 1, 0, 1, 0, 1, 0, 1
    24,     25, 1, 0.004406667, 0.001160444,        0,       0,       0,       0, 0, 0, 0, 0, 1, 1, 0, 1, 1, 0, 1, 0, 1, 0, 1
    25,     26, 1, 0.001706667, 0.0004493333,        0,       0,       0,       0, 0, 0, 0, 0, 1, 1, 0, 1, 1, 0, 1, 0, 1, 0, 1
    26,     27, 1,  0.00322, 0.000848,        0,       0,       0,       0, 0, 0, 0, 0, 1, 1, 0, 1, 1, 0, 1, 0, 1, 0, 1
    27,     28, 1, 0.005266667, 0.001387111,        0,       0,       0,       0, 0, 0, 0, 0, 1, 1, 0, 1, 1, 0, 1, 0, 1, 0, 1
    28,     29, 1, 0.005490222, 0.003066222,        0,       0,       0,       0, 0, 0, 0, 0, 1, 1, 0, 1, 1, 0, 1, 0, 1, 0, 1
    29,     30, 1, 0.001580889, 0.0008831111,        0,       0,       0,       0, 0, 0, 0, 0, 1, 1, 0, 1, 1, 0, 1, 0, 1, 0, 1
    30,     31, 1, 0.004219556, 0.001513778,        0,       0,       0,       0, 0, 0, 0, 0, 1, 1, 0, 1, 1, 0, 1, 0, 1, 0, 1
    31,     32, 1, 0.003066222, 0.001712444,        0,       0,       0,       0, 0, 0, 0, 0, 1, 1, 0, 1, 1, 0, 1, 0, 1, 0, 1
    32,     33, 1, 0.006980889, 0.003899111,        0,       0,       0,       0, 0, 0, 0, 0, 1, 1, 0, 1, 1, 0, 1, 0, 1, 0, 1
     5,     34, 1, 0.005624444, 0.002017778,        0,       0,       0,       0, 0, 0, 0, 0, 1, 1, 0, 1, 1, 0, 1, 0, 1, 0, 1
     5,     35, 1, 0.0007502222, 0.0004191111,        0,       0,       0,       0, 0, 0, 0, 0, 1, 1, 0, 1, 1, 0, 1, 0, 1, 0, 1
    35,     36, 1, 0.001218222, 0.0006804444,        0,       0,       0,       0, 0, 0, 0, 0, 1, 1, 0, 1, 1, 0, 1, 0, 1, 0, 1
    36,     37, 1, 0.001134222, 0.0006333333,        0,       0,       0,       0, 0, 0, 0, 0, 1, 1, 0, 1, 1, 0, 1, 0, 1, 0, 1
     6,     38, 1, 0.001851111, 0.001033778,        0,       0,       0,       0, 0, 0, 0, 0, 1, 1, 0, 1, 1, 0, 1, 0, 1, 0, 1
     6,     39, 1, 0.006593333, 0.001736444,        0,       0,       0,       0, 0, 0, 0, 0, 1, 1, 0, 1, 1, 0, 1, 0, 1, 0, 1
    39,     40, 1,    0.008, 0.002106667,        0,       0,       0,       0, 0, 0, 0, 0, 1, 1, 0, 1, 1, 0, 1, 0, 1, 0, 1
    40,     41, 1, 0.002300889, 0.001285333,        0,       0,       0,       0, 0, 0, 0, 0, 1, 1, 0, 1, 1, 0, 1, 0, 1, 0, 1
    41,     42, 1, 0.003176889, 0.001774222,        0,       0,       0,       0, 0, 0, 0, 0, 1, 1, 0, 1, 1, 0, 1, 0, 1, 0, 1
     8,     43, 1,   0.0047, 0.001237778,        0,       0,       0,       0, 0, 0, 0, 0, 1, 1, 0, 1, 1, 0, 1, 0, 1, 0, 1
    43,     44, 1, 0.002310222, 0.001290222,        0,       0,       0,       0, 0, 0, 0, 0, 1, 1, 0, 1, 1, 0, 1, 0, 1, 0, 1
    44,     45, 1, 0.001484889, 0.0008293333,        0,       0,       0,       0, 0, 0, 0, 0, 1, 1, 0, 1, 1, 0, 1, 0, 1, 0, 1
     9,     46, 1, 0.001551111, 0.0008662222,        0,       0,       0,       0, 0, 0, 0, 0, 1, 1, 0, 1, 1, 0, 1, 0, 1, 0, 1
    10,     47, 1, 0.002564889, 0.001432444,        0,       0,       0,       0, 0, 0, 0, 0, 1, 1, 0, 1, 1, 0, 1, 0, 1, 0, 1
    47,     48, 1, 0.001599111, 0.0008928889,        0,       0,       0,       0, 0, 0, 0, 0, 1, 1, 0, 1, 1, 0, 1, 0, 1, 0, 1
    48,     49, 1, 0.003416889, 0.001908444,        0,       0,       0,       0, 0, 0, 0, 0, 1, 1, 0, 1, 1, 0, 1, 0, 1, 0, 1
    49,     50, 1, 0.001155111, 0.0006448889,        0,       0,       0,       0, 0, 0, 0, 0, 1, 1, 0, 1, 1, 0, 1, 0, 1, 0, 1
    50,     51, 1, 0.003846222, 0.002148,        0,       0,       0,       0, 0, 0, 0, 0, 1, 1, 0, 1, 1, 0, 1, 0, 1, 0, 1
    10,     52, 1, 0.002332444, 0.002301778,        0,       0,       0,       0, 0, 0, 0, 0, 1, 1, 0, 1, 1, 0, 1, 0, 1, 0, 1
    52,     53, 1, 0.000772, 0.0007617778,        0,       0,       0,       0, 0, 0, 0, 0, 1, 1, 0, 1, 1, 0, 1, 0, 1, 0, 1
    53,     54, 1, 0.002732444, 0.002696889,        0,       0,       0,       0, 0, 0, 0, 0, 1, 1, 0, 1, 1, 0, 1, 0, 1, 0, 1
    54,     55, 1,  0.00088, 0.0008684444,        0,       0,       0,       0, 0, 0, 0, 0, 1, 1, 0, 1, 1, 0, 1, 0, 1, 0, 1
    55,     56, 1,  0.00088, 0.0008684444,        0,       0,       0,       0, 0, 0, 0, 0, 1, 1, 0, 1, 1, 0, 1, 0, 1, 0, 1
    56,     57, 1, 0.001266667, 0.001250222,        0,       0,       0,       0, 0, 0, 0, 0, 1, 1, 0, 1, 1, 0, 1, 0, 1, 0, 1
    57,     58, 1, 0.0006351111, 0.0006266667,        0,       0,       0,       0, 0, 0, 0, 0, 1, 1, 0, 1, 1, 0, 1, 0, 1, 0, 1
    58,     59, 1, 0.001515111, 0.0008462222,        0,       0,       0,       0, 0, 0, 0, 0, 1, 1, 0, 1, 1, 0, 1, 0, 1, 0, 1
    59,     60, 1, 0.001635111, 0.0009133333,        0,       0,       0,       0, 0, 0, 0, 0, 1, 1, 0, 1, 1, 0, 1, 0, 1, 0, 1
    60,     61, 1, 0.001596, 0.0008915556,        0,       0,       0,       0, 0, 0, 0, 0, 1, 1, 0, 1, 1, 0, 1, 0, 1, 0, 1
    61,     62, 1, 0.001556889, 0.0008697778,        0,       0,       0,       0, 0, 0, 0, 0, 1, 1, 0, 1, 1, 0, 1, 0, 1, 0, 1
    62,     63, 1, 0.001875111, 0.001047111,        0,       0,       0,       0, 0, 0, 0, 0, 1, 1, 0, 1, 1, 0, 1, 0, 1, 0, 1
    63,     64, 1, 0.006835556, 0.002452,        0,       0,       0,       0, 0, 0, 0, 0, 1, 1, 0, 1, 1, 0, 1, 0, 1, 0, 1
    64,     65, 1, 0.004350222, 0.001560444,        0,       0,       0,       0, 0, 0, 0, 0, 1, 1, 0, 1, 1, 0, 1, 0, 1, 0, 1
    65,     66, 1, 0.006627111, 0.002377333,        0,       0,       0,       0, 0, 0, 0, 0, 1, 1, 0, 1, 1, 0, 1, 0, 1, 0, 1
    11,     67, 1, 0.004306667, 0.001134222,        0,       0,       0,       0, 0, 0, 0, 0, 1, 1, 0, 1, 1, 0, 1, 0, 1, 0, 1
    67,     68, 1,  0.00298, 0.0007848889,        0,       0,       0,       0, 0, 0, 0, 0, 1, 1, 0, 1, 1, 0, 1, 0, 1, 0, 1
    12,     69, 1, 0.001935111, 0.001080889,        0,       0,       0,       0, 0, 0, 0, 0, 1, 1, 0, 1, 1, 0, 1, 0, 1, 0, 1
    13,     70, 1, 0.002058222, 0.001149333,        0,       0,       0,       0, 0, 0, 0, 0, 1, 1, 0, 1, 1, 0, 1, 0, 1, 0, 1
    70,     71, 1, 0.001203111, 0.000672,        0,       0,       0,       0, 0, 0, 0, 0, 1, 1, 0, 1, 1, 0, 1, 0, 1, 0, 1
    15,     72, 1, 0.002970222, 0.001658667,        0,       0,       0,       0, 0, 0, 0, 0, 1, 1, 0, 1, 1, 0, 1, 0, 1, 0, 1
    72,     73, 1, 0.003788889, 0.002116444,        0,       0,       0,       0, 0, 0, 0, 0, 1, 1, 0, 1, 1, 0, 1, 0, 1, 0, 1
    16,     74, 1, 0.001472889, 0.0008226667,        0,       0,       0,       0, 0, 0, 0, 0, 1, 1, 0, 1, 1, 0, 1, 0, 1, 0, 1
    18,     75, 1,   0.0018, 0.001005333,        0,       0,       0,       0, 0, 0, 0, 0, 1, 1, 0, 1, 1, 0, 1, 0, 1, 0, 1
    19,     76, 1, 0.001940889, 0.001084,        0,       0,       0,       0, 0, 0, 0, 0, 1, 1, 0, 1, 1, 0, 1, 0, 1, 0, 1
    19,     77, 1, 0.001518222, 0.000848,        0,       0,       0,       0, 0, 0, 0, 0, 1, 1, 0, 1, 1, 0, 1, 0, 1, 0, 1
    77,     78, 1, 0.0009391111, 0.0005244444,        0,       0,       0,       0, 0, 0, 0, 0, 1, 1, 0, 1, 1, 0, 1, 0, 1, 0, 1
    78,     79, 1, 0.004999556, 0.001793333,        0,       0,       0,       0, 0, 0, 0, 0, 1, 1, 0, 1, 1, 0, 1, 0, 1, 0, 1
    79,     80, 1, 0.005216889, 0.002913778,        0,       0,       0,       0, 0, 0, 0, 0, 1, 1, 0, 1, 1, 0, 1, 0, 1, 0, 1
    80,     81, 1, 0.002751111, 0.001536444,        0,       0,       0,       0, 0, 0, 0, 0, 1, 1, 0, 1, 1, 0, 1, 0, 1, 0, 1
    81,     82, 1, 0.002526222, 0.001410667,        0,       0,       0,       0, 0, 0, 0, 0, 1, 1, 0, 1, 1, 0, 1, 0, 1, 0, 1
    20,     83, 1, 0.003730222, 0.001338222,        0,       0,       0,       0, 0, 0, 0, 0, 1, 1, 0, 1, 1, 0, 1, 0, 1, 0, 1
    83,     84, 1, 0.000948, 0.0005293333,        0,       0,       0,       0, 0, 0, 0, 0, 1, 1, 0, 1, 1, 0, 1, 0, 1, 0, 1
    84,     85, 1,  0.00162, 0.0009048889,        0,       0,       0,       0, 0, 0, 0, 0, 1, 1, 0, 1, 1, 0, 1, 0, 1, 0, 1
    85,     86, 1, 0.001424889, 0.000796,        0,       0,       0,       0, 0, 0, 0, 0, 1, 1, 0, 1, 1, 0, 1, 0, 1, 0, 1
    22,     87, 1, 0.003411111, 0.001904889,        0,       0,       0,       0, 0, 0, 0, 0, 1, 1, 0, 1, 1, 0, 1, 0, 1, 0, 1
    24,     88, 1, 0.007072889, 0.002537333,        0,       0,       0,       0, 0, 0, 0, 0, 1, 1, 0, 1, 1, 0, 1, 0, 1, 0, 1
    25,     89, 1,  0.00312, 0.001742667,        0,       0,       0,       0, 0, 0, 0, 0, 1, 1, 0, 1, 1, 0, 1, 0, 1, 0, 1
    25,     90, 1, 0.09219111, 0.003307111,        0,       0,       0,       0, 0, 0, 0, 0, 1, 1, 0, 1, 1, 0, 1, 0, 1, 0, 1
    90,     91, 1, 0.003013333, 0.001080889,        0,       0,       0,       0, 0, 0, 0, 0, 1, 1, 0, 1, 1, 0, 1, 0, 1, 0, 1
    91,     92, 1, 0.002550222, 0.001424444,        0,       0,       0,       0, 0, 0, 0, 0, 1, 1, 0, 1, 1, 0, 1, 0, 1, 0, 1
    27,     93, 1, 0.002628, 0.001468,        0,       0,       0,       0, 0, 0, 0, 0, 1, 1, 0, 1, 1, 0, 1, 0, 1, 0, 1
    28,     94, 1, 0.005273333, 0.001388444,        0,       0,       0,       0, 0, 0, 0, 0, 1, 1, 0, 1, 1, 0, 1, 0, 1, 0, 1
0 / END OF BRANCH DATA, BEGIN TRANSFORMER DATA
0 / END OF TRANSFORMER DATA, BEGIN AREA DATA
0 / END OF AREA DATA, BEGIN TWO-TERMINAL DC DATA
0 / END OF TWO-TERMINAL DC DATA, BEGIN VOLTAGE SOURCE CONVERTER DATA
0 / END OF VOLTAGE SOURCE CONVERTER DATA, BEGIN IMPEDANCE CORRECTION DATA
0 / END OF IMPEDANCE CORRECTION DATA, BEGIN MULTI-TERMINAL DC DATA
0 / END OF MULTI-TERMINAL DC DATA, BEGIN MULTI-SECTION LINE DATA
0 / END OF MULTI-SECTION LINE DATA, BEGIN ZONE DATA
0 / END OF ZONE DATA, BEGIN INTER-AREA TRANSFER DATA
0 / END OF INTER-AREA TRANSFER DATA, BEGIN OWNER DATA
0 / END OF OWNER DATA, BEGIN FACTS CONTROL DEVICE DATA
0 / END OF FACTS CONTROL DEVICE DATA, BEGIN SWITCHED SHUNT DATA
0 / END OF SWITCHED SHUNT DATA, BEGIN GNE DEVICE DATA
0 / END OF GNE DEVICE DATA, BEGIN INDUCTION MACHINE DATA
0 / END OF INDUCTION MACHINE DATA
Q
